$# LS-DYNA Keyword file created by LS-PrePost(R) V4.6.3 - 26Jan2019
$# Created on Jun-4-2020 (13:17:09)
*KEYWORD
*TITLE
$#                                                                         title
LS-DYNA keyword deck by LS-PrePost
*ELEMENT_SHELL
$#   eid     pid      n1      n2      n3      n4      n5      n6      n7      n8
       1       1       1       2       4       3       0       0       0       0
       2       1       3       4       6       5       0       0       0       0
       3       1       5       6       8       7       0       0       0       0
       4       1       7       8      10       9       0       0       0       0
       5       1       9      10      12      11       0       0       0       0
       6       1      11      12      14      13       0       0       0       0
       7       1      13      14      16      15       0       0       0       0
       8       1      15      16      18      17       0       0       0       0
       9       1      17      18      20      19       0       0       0       0
      10       1      19      20      22      21       0       0       0       0
      11       1      21      22      24      23       0       0       0       0
      12       1      23      24      26      25       0       0       0       0
      13       1      25      26      28      27       0       0       0       0
      14       1      27      28      30      29       0       0       0       0
      15       1      29      30      32      31       0       0       0       0
      16       1      31      32      34      33       0       0       0       0
      17       1      33      34      36      35       0       0       0       0
      18       1      35      36      38      37       0       0       0       0
      19       1      37      38      40      39       0       0       0       0
      20       1      39      40      42      41       0       0       0       0
$ ... 16780 like lines cut
*BOUNDARY_SPC_SET_ID
$#      id                                                               heading
         0LeftEnd
$#    nsid       cid      dofx      dofy      dofz     dofrx     dofry     dofrz
         1         0         0         1         1         0         0         0
*SET_NODE_LIST_TITLE
LeftEnd
$#     sid       da1       da2       da3       da4    solver      
         1       0.0       0.0       0.0       0.0MECH
$#    nid1      nid2      nid3      nid4      nid5      nid6      nid7      nid8
         1         2         2       604       604      1206      1206      1808
      1808      2410      2410      3012      3012      3614      3614      4216
      4216      4818      4818      5420      5420      6022      6022      6624
      6624      7226      7226      7828      7828      8430      8430      9032
      9032      9634      9634     10236     10236     10838     10838     11440
     11440     12042     12042     12644     12644     13246     13246     13848
     13848     14450     14450     15052     15052     15654     15654     16256
     16256     16858     16858     17460     17460     18062     18062     18664
     18664     19266     19266     19868     19868     20470     20470     21072
     21072     21674     21674     22276     22276     22878     22878     23480
     23480     24082     24082     24684     24684     25286     25286     25888
     25888     26490     26490     27092     27092     27694     27694     28296
     28296     28898     28898     29500     29500     30102     30102     30704
     30704     31306     31306     31908     31908     32510     32510     33112
*BOUNDARY_SPC_SET_ID
$#      id                                                               heading
         0RightEnd
$#    nsid       cid      dofx      dofy      dofz     dofrx     dofry     dofrz
         2         0         0         1         1         0         0         0
*SET_NODE_LIST_TITLE
RightEnd
$#     sid       da1       da2       da3       da4    solver      
         2       0.0       0.0       0.0       0.0MECH
$#    nid1      nid2      nid3      nid4      nid5      nid6      nid7      nid8
       601       602       602      1204      1204      1806      1806      2408
      2408      3010      3010      3612      3612      4214      4214      4816
      4816      5418      5418      6020      6020      6622      6622      7224
      7224      7826      7826      8428      8428      9030      9030      9632
      9632     10234     10234     10836     10836     11438     11438     12040
     12040     12642     12642     13244     13244     13846     13846     14448
     14448     15050     15050     15652     15652     16254     16254     16856
     16856     17458     17458     18060     18060     18662     18662     19264
     19264     19866     19866     20468     20468     21070     21070     21672
     21672     22274     22274     22876     22876     23478     23478     24080
     24080     24682     24682     25284     25284     25886     25886     26488
     26488     27090     27090     27692     27692     28294     28294     28896
     28896     29498     29498     30100     30100     30702     30702     31304
     31304     31906     31906     32508     32508     33110     33110     33712
*BOUNDARY_SPC_SET_ID
$#      id                                                               heading
         0Midline
$#    nsid       cid      dofx      dofy      dofz     dofrx     dofry     dofrz
         4         0         1         0         0         0         0         0
*SET_NODE_LIST_TITLE
BeamMidline
$#     sid       da1       da2       da3       da4    solver      
         4       0.0       0.0       0.0       0.0MECH
$#    nid1      nid2      nid3      nid4      nid5      nid6      nid7      nid8
       301       302       302       904       904      1506      1506      2108
      2108      2710      2710      3312      3312      3914      3914      4516
      4516      5118      5118      5720      5720      6322      6322      6924
      6924      7526      7526      8128      8128      8730      8730      9332
      9332      9934      9934     10536     10536     11138     11138     11740
     11740     12342     12342     12944     12944     13546     13546     14148
     14148     14750     14750     15352     15352     15954     15954     16556
     16556     17158     17158     17760     17760     18362     18362     18964
     18964     19566     19566     20168     20168     20770     20770     21372
     21372     21974     21974     22576     22576     23178     23178     23780
     23780     24382     24382     24984     24984     25586     25586     26188
     26188     26790     26790     27392     27392     27994     27994     28596
     28596     29198     29198     29800     29800     30402     30402     31004
     31004     31606     31606     32208     32208     32810     32810     33412
*CONTROL_IMPLICIT_GENERAL
$#  imflag       dt0    imform      nsbs       igs     cnstn      form    zero_v
         1      0.01         2         1         2         0         0         0
*CONTROL_TERMINATION
$#  endtim    endcyc     dtmin    endeng    endmas     nosol     
       0.2         0       0.0       0.01.000000E8         0
*DEFINE_CURVE
$#    lcid      sidr       sfa       sfo      offa      offo    dattyp     lcint
         1         0       1.0       1.0       0.0       0.0         0         0
$#                a1                  o1  
                 0.0                 0.0
                0.05                 0.5
                 0.1                 1.0
                 0.2                 1.0
*DEFINE_SD_ORIENTATION_TITLE
translational spring
$#     vid       iop        xt        yt        zt      nid1      nid2    
         1         0       0.0       1.0       0.0         0         0
*SET_NODE_LIST_TITLE
TopFlangeLoadPoint
$#     sid       da1       da2       da3       da4    solver      
         3       0.0       0.0       0.0       0.0MECH
$#    nid1      nid2      nid3      nid4      nid5      nid6      nid7      nid8
     25888     25890     25892     25894     25896     25898     25900     25902
     25904     25906     25908     25910     25912     25914     25916     25918
     25920     25922     25924     25926     25928     25930     25932     25934
     25936     25938     25940     25942     25944     25946     25948     25950
     25952     25954     25956     25958     25960     25962     25964     25966
     25968     25970     25972     25974     25976     25978     25980     25982
     25984     25986     25988     25990     25992     25994     25996     25998
     26000     26002     26004     26006     26008     26010     26012     26014
     26016     26018     26020     26022     26024     26026     26028     26030
     26032     26034     26036     26038     26040     26042     26044     26046
     26048     26050     26052     26054     26056     26058     26060     26062
     26064     26066     26068     26070     26072     26074     26076     26078
     26080     26082     26084     26086     26088     26090     26092     26094
     26096     26098     26100     26102     26104     26106     26108     26110
     26112     26114     26116     26118     26120     26122     26124     26126
     26128     26130     26132     26134     26136     26138     26140     26142
     26144     26146     26148     26150     26152     26154     26156     26158
     26160     26162     26164     26166     26168     26170     26172     26174
     26176     26178     26180     26182     26184     26186     26188     26190
     26192     26194     26196     26198     26200     26202     26204     26206
$ ... 56 like lines cut
*SET_NODE_LIST_TITLE
WebLoadPoint
$#     sid       da1       da2       da3       da4    solver      
         5       0.0       0.0       0.0       0.0MECH
$#    nid1      nid2      nid3      nid4      nid5      nid6      nid7      nid8
     16856     16256     16258     16260     16262     16264     16266     16268
     16270     16272     16274     16276     16278     16280     16282     16284
     16286     16288     16290     16292     16294     16296     16298     16300
     16302     16304     16306     16308     16310     16312     16314     16316
     16318     16320     16322     16324     16326     16328     16330     16332
     16334     16336     16338     16340     16342     16344     16346     16348
     16350     16352     16354     16356     16358     16360     16362     16364
     16366     16368     16370     16372     16374     16376     16378     16380
     16382     16384     16386     16388     16390     16392     16394     16396
     16398     16400     16402     16404     16406     16408     16410     16412
     16414     16416     16418     16420     16422     16424     16426     16428
     16430     16432     16434     16436     16438     16440     16442     16444
     16446     16448     16450     16452     16454     16456     16458     16460
     16462     16464     16466     16468     16470     16472     16474     16476
     16478     16480     16482     16484     16486     16488     16490     16492
     16494     16496     16498     16500     16502     16504     16506     16508
     16510     16512     16514     16516     16518     16520     16522     16524
     16526     16528     16530     16532     16534     16536     16538     16540
     16542     16544     16546     16548     16550     16552     16554     16556
     16558     16560     16562     16564     16566     16568     16570     16572
$ ... 18 like lines cut
*DATABASE_NODOUT
$#      dt    binary      lcur     ioopt   option1   option2       
      0.02         0         0         1       0.0         0
*LOAD_NODE_SET
$#    nsid       dof      lcid        sf       cid        m1        m2        m3
         5         3         1   -0.2032         0         0         0         0
*MAT_SPRING_ELASTIC_TITLE
translational spring
$#     mid         k 
         1       0.0
*MAT_ELASTIC_TITLE
steel
$N, kg, and mm
$#     mid        ro         e        pr        da        db  not used        
         2       0.0  200000.0       0.3       0.0       0.0       0.0
*NODE
$#   nid               x               y               z      tc      rc  
       1             0.0        71.01064        17.82784       0       0
       2             0.0        67.70285        13.88579       0       0
       3            25.4        71.01064        17.82784       0       0
       4            25.4        67.70285        13.88579       0       0
       5            50.8        71.01064        17.82784       0       0
       6            50.8        67.70285        13.88579       0       0
       7            76.2        71.01064        17.82784       0       0
       8            76.2        67.70285        13.88579       0       0
       9           101.6        71.01064        17.82784       0       0
      10           101.6        67.70285        13.88579       0       0
      11           127.0        71.01064        17.82784       0       0
      12           127.0        67.70285        13.88579       0       0
      13           152.4        71.01064        17.82784       0       0
      14           152.4        67.70285        13.88579       0       0
      15           177.8        71.01064        17.82784       0       0
      16           177.8        67.70285        13.88579       0       0
      17           203.2        71.01064        17.82784       0       0
      18           203.2        67.70285        13.88579       0       0
      19           228.6        71.01064        17.82784       0       0
      20           228.6        67.70285        13.88579       0       0
$ ... 17137 like lines cut
*PART
$#                                                                         title
purlin
$#     pid     secid       mid     eosid      hgid      grav    adpopt      tmid
         1         2         2         0         0         0         0         0
*SECTION_SHELL_TITLE
purlin
$#   secid    elform      shrf       nip     propt   qr/irid     icomp     setyp
         2         2       1.0         2       1.0         0         0         1
$#      t1        t2        t3        t4      nloc     marea      idof    edgset
    1.4986    1.4986    1.4986    1.4986       0.0       0.0       0.0         0
*PART
$#                                                                         title
translational spring
$#     pid     secid       mid     eosid      hgid      grav    adpopt      tmid
         2         1         1         0         0         0         0         0
*SECTION_DISCRETE_TITLE
translational spring
$#   secid       dro        kd        v0        cl        fd  
         1         0       0.0       0.0       0.0       0.0
$#     cdl       tdl   
       0.0       0.0
*END
